%--------Problem definition-----------%
PHYSICAL_PROBLEM= EULER
MATH_PROBLEM= DIRECT 
KIND_TURB_MODEL= NONE
RESTART_SOL= NO
SYSTEM_MEASUREMENTS= SI
%--------Convergence criteria-----------%
EXTITER= 99999
STARTCONV_ITER= 10
CONV_CRITERIA= CAUCHY
CAUCHY_ELEMS= 100
CAUCHY_EPS= 1e-10
CAUCHY_FUNC_FLOW= DRAG
%--------Problem definition-----------%
PHYSICAL_PROBLEM= HEAT_EQUATION
MATH_PROBLEM= DIRECT 
KIND_TURB_MODEL= SA
RESTART_SOL= YES
SYSTEM_MEASUREMENTS= SI
